<?xml version="1.0" encoding="ISO-8859-1"?>
<febio_spec version="4.0">
	<Module type="solid">
		<units>mm-N-s</units>
	</Module>
	<Control>
		<analysis>STATIC</analysis>
		<time_steps>10</time_steps>
		<step_size>0.1</step_size>
		<plot_zero_state>0</plot_zero_state>
		<plot_range>0,-1</plot_range>
		<plot_level>PLOT_MAJOR_ITRS</plot_level>
		<output_level>OUTPUT_MAJOR_ITRS</output_level>
		<plot_stride>1</plot_stride>
		<output_stride>1</output_stride>
		<adaptor_re_solve>1</adaptor_re_solve>
		<time_stepper type="default">
			<max_retries>5</max_retries>
			<opt_iter>11</opt_iter>
			<dtmin>0</dtmin>
			<dtmax>0.1</dtmax>
			<aggressiveness>0</aggressiveness>
			<cutback>0.5</cutback>
			<dtforce>0</dtforce>
		</time_stepper>
		<solver type="solid">
			<symmetric_stiffness>preferred</symmetric_stiffness>
			<equation_scheme>staggered</equation_scheme>
			<equation_order>default</equation_order>
			<optimize_bw>0</optimize_bw>
			<lstol>0.9</lstol>
			<lsmin>0.01</lsmin>
			<lsiter>5</lsiter>
			<ls_check_jacobians>0</ls_check_jacobians>
			<max_refs>15</max_refs>
			<check_zero_diagonal>0</check_zero_diagonal>
			<zero_diagonal_tol>0</zero_diagonal_tol>
			<force_partition>0</force_partition>
			<reform_each_time_step>1</reform_each_time_step>
			<reform_augment>0</reform_augment>
			<diverge_reform>1</diverge_reform>
			<min_residual>1e-20</min_residual>
			<max_residual>0</max_residual>
			<dtol>0.001</dtol>
			<etol>0.01</etol>
			<rtol>0</rtol>
			<rhoi>-2</rhoi>
			<alpha>1</alpha>
			<beta>0.25</beta>
			<gamma>0.5</gamma>
			<logSolve>0</logSolve>
			<arc_length>0</arc_length>
			<arc_length_scale>0</arc_length_scale>
			<qn_method type="BFGS">
				<max_ups>10</max_ups>
				<max_buffer_size>0</max_buffer_size>
				<cycle_buffer>1</cycle_buffer>
				<cmax>100000</cmax>
			</qn_method>
		</solver>
	</Control>
	<Globals>
		<Constants>
			<T>0</T>
			<P>0</P>
			<R>8.31446e-06</R>
			<Fc>9.64853e-05</Fc>
		</Constants>
	</Globals>
	<Material>
		<material id="1" name="Media" type="solid mixture">
			<density>1</density>
			<solid type="neo-Hookean">
				<E>0</E>
				<v>0</v>
			</solid>
			<solid type="fiber-exp-pow">
				<alpha>0</alpha>
				<beta>2</beta>
				<ksi>0</ksi>
				<mu>0</mu>
				<lam0>1</lam0>
			</solid>
		</material>
		<material id="2" name="Adventitia" type="solid mixture">
			<density>1</density>
		</material>
	</Material>
	<Mesh>
		<Nodes name="Object1">
			<node id="1">0.95,0,0</node>
			<node id="2">1.27,0,0</node>
			<node id="3">0,0.95,0</node>
			<node id="4">0,1.27,0</node>
			<node id="5">-0.95,0,0</node>
			<node id="6">-1.27,0,0</node>
			<node id="7">0,-0.95,0</node>
			<node id="8">0,-1.27,0</node>
			<node id="9">0.95,0,10</node>
			<node id="10">1.27,0,10</node>
			<node id="11">0,0.95,10</node>
			<node id="12">0,1.27,10</node>
			<node id="13">-0.95,0,10</node>
			<node id="14">-1.27,0,10</node>
			<node id="15">0,-0.95,10</node>
			<node id="16">0,-1.27,10</node>
			<node id="17">1.05666667,0,0</node>
			<node id="18">1.16333333,0,0</node>
			<node id="19">1.27,0,0.5</node>
			<node id="20">1.27,0,1</node>
<!-- ... 13420 like lines cut -->
		</Nodes>
		<Elements type="hex8" name="Part1">
			<elem id="3">18,2,59,2444,810,19,847,7514</elem>
			<elem id="6">2444,59,60,2442,7514,847,848,7516</elem>
			<elem id="9">2442,60,61,2440,7516,848,849,7518</elem>
			<elem id="12">2440,61,62,2438,7518,849,850,7520</elem>
			<elem id="15">2438,62,63,2436,7520,850,851,7522</elem>
			<elem id="18">2436,63,64,2434,7522,851,852,7524</elem>
			<elem id="21">2434,64,65,2432,7524,852,853,7526</elem>
			<elem id="24">2432,65,66,2430,7526,853,854,7528</elem>
			<elem id="27">2430,66,67,2428,7528,854,855,7530</elem>
			<elem id="30">2428,67,68,2426,7530,855,856,7532</elem>
			<elem id="33">2426,68,69,2424,7532,856,857,7534</elem>
			<elem id="36">2424,69,70,2422,7534,857,858,7536</elem>
			<elem id="39">2422,70,71,2420,7536,858,859,7538</elem>
			<elem id="42">2420,71,72,2418,7538,859,860,7540</elem>
			<elem id="45">2418,72,73,2416,7540,860,861,7542</elem>
			<elem id="48">2416,73,74,2414,7542,861,862,7544</elem>
			<elem id="51">2414,74,75,2412,7544,862,863,7546</elem>
			<elem id="54">2412,75,76,2410,7546,863,864,7548</elem>
			<elem id="57">2410,76,77,2408,7548,864,865,7550</elem>
			<elem id="60">2408,77,78,2406,7550,865,866,7552</elem>
<!-- ... 3180 like lines cut -->
		</Elements>
		<Elements type="hex8" name="Part4">
			<elem id="1">1,17,2443,217,58,809,7513,1664</elem>
			<elem id="2">17,18,2444,2443,809,810,7514,7513</elem>
			<elem id="4">217,2443,2441,216,1664,7513,7515,1663</elem>
			<elem id="5">2443,2444,2442,2441,7513,7514,7516,7515</elem>
			<elem id="7">216,2441,2439,215,1663,7515,7517,1662</elem>
			<elem id="8">2441,2442,2440,2439,7515,7516,7518,7517</elem>
			<elem id="10">215,2439,2437,214,1662,7517,7519,1661</elem>
			<elem id="11">2439,2440,2438,2437,7517,7518,7520,7519</elem>
			<elem id="13">214,2437,2435,213,1661,7519,7521,1660</elem>
			<elem id="14">2437,2438,2436,2435,7519,7520,7522,7521</elem>
			<elem id="16">213,2435,2433,212,1660,7521,7523,1659</elem>
			<elem id="17">2435,2436,2434,2433,7521,7522,7524,7523</elem>
			<elem id="19">212,2433,2431,211,1659,7523,7525,1658</elem>
			<elem id="20">2433,2434,2432,2431,7523,7524,7526,7525</elem>
			<elem id="22">211,2431,2429,210,1658,7525,7527,1657</elem>
			<elem id="23">2431,2432,2430,2429,7525,7526,7528,7527</elem>
			<elem id="25">210,2429,2427,209,1657,7527,7529,1656</elem>
			<elem id="26">2429,2430,2428,2427,7527,7528,7530,7529</elem>
			<elem id="28">209,2427,2425,208,1656,7529,7531,1655</elem>
			<elem id="29">2427,2428,2426,2425,7529,7530,7532,7531</elem>
<!-- ... 6380 like lines cut -->
		</Elements>
		<NodeSet name="Pin (x)">
			7433
		</NodeSet>
		<NodeSet name="Pin (y)">
			7433
		</NodeSet>
		<Surface name="Pressure">
			<quad4 id="1">3,179,1626,158</quad4>
			<quad4 id="2">179,180,1627,1626</quad4>
			<quad4 id="3">180,181,1628,1627</quad4>
			<quad4 id="4">181,182,1629,1628</quad4>
			<quad4 id="5">182,183,1630,1629</quad4>
			<quad4 id="6">183,184,1631,1630</quad4>
			<quad4 id="7">184,185,1632,1631</quad4>
			<quad4 id="8">185,186,1633,1632</quad4>
			<quad4 id="9">186,187,1634,1633</quad4>
			<quad4 id="10">187,188,1635,1634</quad4>
			<quad4 id="11">188,189,1636,1635</quad4>
			<quad4 id="12">189,190,1637,1636</quad4>
			<quad4 id="13">190,191,1638,1637</quad4>
			<quad4 id="14">191,192,1639,1638</quad4>
			<quad4 id="15">192,193,1640,1639</quad4>
			<quad4 id="16">193,194,1641,1640</quad4>
			<quad4 id="17">194,195,1642,1641</quad4>
			<quad4 id="18">195,196,1643,1642</quad4>
			<quad4 id="19">196,197,1644,1643</quad4>
			<quad4 id="20">197,198,1645,1644</quad4>
<!-- ... 3180 like lines cut -->
		</Surface>
		<Surface name="Bottom BC">
			<quad4 id="1">156,4,97,2368</quad4>
			<quad4 id="2">2368,97,96,2370</quad4>
			<quad4 id="3">2370,96,95,2372</quad4>
			<quad4 id="4">2372,95,94,2374</quad4>
			<quad4 id="5">2374,94,93,2376</quad4>
			<quad4 id="6">2376,93,92,2378</quad4>
			<quad4 id="7">2378,92,91,2380</quad4>
			<quad4 id="8">2380,91,90,2382</quad4>
			<quad4 id="9">2382,90,89,2384</quad4>
			<quad4 id="10">2384,89,88,2386</quad4>
			<quad4 id="11">2386,88,87,2388</quad4>
			<quad4 id="12">2388,87,86,2390</quad4>
			<quad4 id="13">2390,86,85,2392</quad4>
			<quad4 id="14">2392,85,84,2394</quad4>
			<quad4 id="15">2394,84,83,2396</quad4>
			<quad4 id="16">2396,83,82,2398</quad4>
			<quad4 id="17">2398,82,81,2400</quad4>
			<quad4 id="18">2400,81,80,2402</quad4>
			<quad4 id="19">2402,80,79,2404</quad4>
			<quad4 id="20">2404,79,78,2406</quad4>
<!-- ... 460 like lines cut -->
		</Surface>
		<Surface name="Top BC">
			<quad4 id="1">38,10,155,2446</quad4>
			<quad4 id="2">2446,155,154,2448</quad4>
			<quad4 id="3">2448,154,153,2450</quad4>
			<quad4 id="4">2450,153,152,2452</quad4>
			<quad4 id="5">2452,152,151,2454</quad4>
			<quad4 id="6">2454,151,150,2456</quad4>
			<quad4 id="7">2456,150,149,2458</quad4>
			<quad4 id="8">2458,149,148,2460</quad4>
			<quad4 id="9">2460,148,147,2462</quad4>
			<quad4 id="10">2462,147,146,2464</quad4>
			<quad4 id="11">2464,146,145,2466</quad4>
			<quad4 id="12">2466,145,144,2468</quad4>
			<quad4 id="13">2468,144,143,2470</quad4>
			<quad4 id="14">2470,143,142,2472</quad4>
			<quad4 id="15">2472,142,141,2474</quad4>
			<quad4 id="16">2474,141,140,2476</quad4>
			<quad4 id="17">2476,140,139,2478</quad4>
			<quad4 id="18">2478,139,138,2480</quad4>
			<quad4 id="19">2480,138,137,2482</quad4>
			<quad4 id="20">2482,137,136,2484</quad4>
<!-- ... 460 like lines cut -->
		</Surface>
	</Mesh>
	<MeshDomains>
		<SolidDomain name="Part1" mat="Adventitia"/>
		<SolidDomain name="Part4" mat="Media"/>
	</MeshDomains>
	<Boundary>
		<bc name="Bottom BC" node_set="@surface:Bottom BC" type="prescribed displacement">
			<dof>z</dof>
			<value lc="2">0</value>
			<relative>0</relative>
		</bc>
		<bc name="Top BC" node_set="@surface:Top BC" type="prescribed displacement">
			<dof>z</dof>
			<value lc="3">3</value>
			<relative>0</relative>
		</bc>
		<bc name="Pin (x)" node_set="Pin (x)" type="prescribed displacement">
			<dof>x</dof>
			<value lc="4">0</value>
			<relative>0</relative>
		</bc>
		<bc name="Pin (y)" node_set="Pin (y)" type="prescribed displacement">
			<dof>y</dof>
			<value lc="5">0</value>
			<relative>0</relative>
		</bc>
	</Boundary>
	<Loads>
		<surface_load name="Pressure" surface="Pressure" type="pressure">
			<pressure lc="1">0.016</pressure>
			<symmetric_stiffness>1</symmetric_stiffness>
			<linear>0</linear>
			<shell_bottom>0</shell_bottom>
		</surface_load>
	</Loads>
	<LoadData>
		<load_controller id="1" name="LC1" type="loadcurve">
			<interpolate>LINEAR</interpolate>
			<extend>CONSTANT</extend>
			<points>
				<pt>0,0</pt>
				<pt>1,1</pt>
			</points>
		</load_controller>
		<load_controller id="2" name="LC2" type="loadcurve">
			<interpolate>LINEAR</interpolate>
			<extend>CONSTANT</extend>
			<points>
				<pt>0,0</pt>
				<pt>1,1</pt>
			</points>
		</load_controller>
		<load_controller id="3" name="LC3" type="loadcurve">
			<interpolate>LINEAR</interpolate>
			<extend>CONSTANT</extend>
			<points>
				<pt>0,0</pt>
				<pt>1,1</pt>
			</points>
		</load_controller>
		<load_controller id="4" name="LC4" type="loadcurve">
			<interpolate>LINEAR</interpolate>
			<extend>CONSTANT</extend>
			<points>
				<pt>0,0</pt>
				<pt>1,1</pt>
			</points>
		</load_controller>
		<load_controller id="5" name="LC5" type="loadcurve">
			<interpolate>LINEAR</interpolate>
			<extend>CONSTANT</extend>
			<points>
				<pt>0,0</pt>
				<pt>1,1</pt>
			</points>
		</load_controller>
	</LoadData>
	<Output>
		<plotfile type="febio">
			<var type="displacement"/>
			<var type="stress"/>
			<var type="relative volume"/>
		</plotfile>
	</Output>
</febio_spec>
